#!/bin/bash
#PBS -l walltime=10:00:00
#PBS -l ncpus=4
#PBS -q normal
#PBS -P w40
#PBS -l storage=gdata/hh5+gdata/w40+scratch/w40+gdata/access
#PBS -l mem=150gb
#PBS -N create_custom_tac

# PROGNAME=$(basename $0)
# usage() {
#   cat << EOF
# Script to create a custom atmospheric flux, by defining value, latitude, longitude and level extent.

# Usage: $PROGNAME -c <change-string> [-n <output-name>]

# '$PROGNAME' create a custom atmospheric flux based on the <change-string> provided. 

# List of keys/options:
# -c <change-string> -> Perturbs the file and creates the new directory, without submitting the job.
#     The change-string needs to have the following format:

# -n <output-name> -> Name for the ancillary file which will be created under /g/data3/w40/dm5220/ancil/user_mlevel/tac_rad_change.
#     If not provided, the ancillary file will be called "best_X", where X is the first available number for which an ancillary file doesn't exist already.

# EOF
#   exit 1
# }

# while getopts ":c:n:" opt; do
#     case $opt in
#         c) 
#             change=0
#         ;;
#         n)
#             name="$OPTARG"
#         ;;
#         \?) usage
#         ;;
#     esac
# done
# shift $((OPTIND-1))
# script=/g/data3/w40/dm5220/scripts/tac_rad_change/custom_tac_submit
# cat > $script <<EOF

#!/bin/bash
#PBS -l walltime=10:00:00
#PBS -l ncpus=4
#PBS -q normal
#PBS -P w40
#PBS -l storage=gdata/hh5+gdata/w40+scratch/w40+gdata/access
#PBS -l mem=150gb
#PBS -N create_custom_tac

name=best_1
dir=/g/data3/w40/dm5220/ancil/user_mlevel/tac_rad_change
file=${dir}/${name}
i=1
while [[ -f ${file} ]]
do
    ((i++))
    name=best_${i}
    file=${dir}/${name}
done
python3 /g/data/w40/dm5220/scripts/tac_rad_change/create_custom_tac.py "$name"

script=/g/data/w40/dm5220/scripts/tac_rad_change/xancil.namelist_custom
cat > $script <<EOS
&nam_config
  ICAL = 2,
  ISIZE = 64,
  L32BIT = .FALSE.,
  VERSION = 7.3,
  LBIGENDOUT = .TRUE.,
  LWFIO = .TRUE.,
  IWFIO_SIZE = 2048,
  NNCFILES = 1
  NCFILES = "${dir}/files_for_xancil/${name}.nc"
 /

 &nam_gridconfig
  LVARGRID = .FALSE.,
  IAVERT = 1,
  NLEV = 38,
  NO3LEV = 38,
  LLEVSTOREUP = .TRUE.,
  NAM_VERT = "/g/data/access/projects/access/umdir/vn7.3/ctldata/vert/vertlevs_G3",
  IOVERT = 0,
  LDEEPSOIL = .FALSE.
 /

 &nam_ozone
 /

 &nam_smow
 /

 &nam_slt
 /

 &nam_soil
 /

 &nam_veg
 /

 &nam_vegfrac
 /

 &nam_vegfunc
 /

 &nam_vegdist
 /

 &nam_sst
 /

 &nam_ice
 /

 &nam_orog
 /

 &nam_mask
 /

 &nam_lfrac
 /

 &nam_ausrmulti
  LAUSRMULTI = .TRUE.,
  AUSRMULTI_FILEOUT = "${dir}/${name}",
  LAUSRMULTI_PERIODIC = .TRUE.,
  LAUSRMULTI_CAL_INDEP = .FALSE.,
  IAUSRMULTI_TIMEUSAGE1 = 1,
  IAUSRMULTI_TIMEUSAGE2 = 0,
  IAUSRMULTI_STARTDATE(1) = 0000,
  IAUSRMULTI_STARTDATE(2) = 1,
  IAUSRMULTI_STARTDATE(3) = 1,
  IAUSRMULTI_STARTDATE(4) = 0,
  IAUSRMULTI_STARTDATE(5) = 0,
  IAUSRMULTI_STARTDATE(6) = 0,
  IAUSRMULTI_NTIMES = 360,
  IAUSRMULTI_INTERVAL = 1,
  IAUSRMULTI_INTUNIT = 2,
  LAUSRMULTI_MM = .TRUE.
  IAUSRMULTI_NFIELD = 1
  IAUSRMULTI_FILEINID(1) = 1,
  IAUSRMULTI_STASHCODE(1) = 321,
  IAUSRMULTI_PPCODE(1) = 0,
  AUSRMULTI_NCNAME(1) = "mlev_ancil",
  LAUSRMULTI_THETA(1) = .TRUE.
  IAUSRMULTI_GRIDTYPE(1) = 1,
  IAUSRMULTI_DATATYPE(1) = 1,
  IAUSRMULTI_MASKTYPE(1) = 0,
  IAUSRMULTI_MASK(1) = 0,
 /

 &nam_ausrancil
 /

 &nam_ts1
 /

 &nam_flux
 /

 &nam_ousrmulti
 /

 &nam_ousrancil
 /

 &nam_genanc_config
  NANCFILES = 1
 /

 &nam_genanc
  LGENANC_FILE(1) = .FALSE.,

 /

 &nam_astart
 /
EOS

/g/data/access/projects/access/apps/xancil/0.57/mkancil < "$script"