#!/bin/bash
PROGNAME=$0

usage() {
  cat << EOF
Script to generate the single-level and sst um ancillary files for tair/tsurf change experiment.
Usage: $PROGNAME [-i <input file>] [-o "<output s-level> <output sst>"]  [--slab]

List of keys/options:
-i <path to folder> -> path to input folder (omit if you wanna create a no-change tsurf)
-o "<path to s-level> <path to sst>" -> paths to output UM ancillary files
--slab -> create mask so as to enable slab ocean 

EOF
  exit 1
}

while getopts hi:o:-: opt; do
    case $opt in
        -)
          case "${OPTARG}" in
            slab)
              options_slev+=" --slab"
              mask_file="/g/data/w40/dm5220/ancil/user_slevel/tair_change/files_for_xancil/land_mask_tac_slab.nc"
            ;;
            *) usage
          esac;;
        i)
          options_slev+=" -i $(readlink -f ${OPTARG})"
          options_sst+=" -i $(readlink -f ${OPTARG})"
          mask_file="/g/data/w40/dm5220/ancil/user_slevel/tair_change/files_for_xancil/land_mask_tac_no_slab.nc"
          sst=1
          ;;
        o)
            arg=($OPTARG)
		    out_slev=$(readlink -m ${arg[0]})
            out_sst=$(readlink -m ${arg[1]})
          ;;
        *) usage
    esac
done

cd /g/data3/w40/dm5220/scripts/tair_change

in_slev="/g/data/w40/dm5220/ancil/user_slevel/tair_change/files_for_xancil/$(basename "$out_slev").nc"
in_sst="/g/data/w40/dm5220/ancil/sst/tair_change/files_for_xancil/$(basename "$out_sst").nc"
options_slev+=" -o $in_slev"
options_sst+=" -o $in_sst"

flux_file="/g/data/w40/dm5220/ancil/user_slevel/tair_change/files_for_xancil/qflux_tac.nc"

xancil_namelist_slev="/g/data3/w40/dm5220/scripts/tair_change/xancil.namelist_slevel_tair_change_$(basename "$out_slev")"
cat > "$xancil_namelist_slev" <<EOF
  &nam_config
  ICAL = 2,
  ISIZE = 64,
  L32BIT = .FALSE.,
  VERSION = 7.3,
  LBIGENDOUT = .TRUE.,
  LWFIO = .TRUE.,
  IWFIO_SIZE = 2048,
  NNCFILES = 3
  NCFILES = "$flux_file","$mask_file","$in_slev"
 /

 &nam_gridconfig
  LVARGRID = .FALSE.,
  IAVERT = 0,
  IOVERT = 0,
  LDEEPSOIL = .FALSE.,
 /

 &nam_ozone
 /

 &nam_smow
 /

 &nam_slt
 /

 &nam_soil
 /

 &nam_veg
 /

 &nam_vegfrac
 /

 &nam_vegfunc
 /

 &nam_vegdist
 /

 &nam_sst
 /

 &nam_ice
 /

 &nam_orog
 /

 &nam_mask
 /

 &nam_lfrac
 /

 &nam_ausrmulti
 /

 &nam_ausrancil
  LAUSRANCIL = .TRUE.,
  AUSRANCIL_FILEOUT = "${out_slev}",
  LAUSRANCIL_PERIODIC = .TRUE.,
  LAUSRANCIL_CAL_INDEP = .FALSE.,
  IAUSRANCIL_TIMEUSAGE1 = 1,
  IAUSRANCIL_TIMEUSAGE2 = 0,
  IAUSRANCIL_STARTDATE(1) = 0000,
  IAUSRANCIL_STARTDATE(2) = 1,
  IAUSRANCIL_STARTDATE(3) = 1,
  IAUSRANCIL_STARTDATE(4) = 0,
  IAUSRANCIL_STARTDATE(5) = 0,
  IAUSRANCIL_STARTDATE(6) = 0,
  IAUSRANCIL_NTIMES = 8640,
  IAUSRANCIL_INTERVAL = 1,
  IAUSRANCIL_INTUNIT = 3,
  LAUSRANCIL_MM = .TRUE.
  IAUSRANCIL_NFIELD = 3
  IAUSRANCIL_FILEINID(1) = 1,
  IAUSRANCIL_STASHCODE(1) = 301,
  IAUSRANCIL_PPCODE(1) = 0,
  AUSRANCIL_NCNAME(1) = "qflux",
  IAUSRANCIL_GRIDTYPE(1) = 1,
  IAUSRANCIL_DATATYPE(1) = 1,
  IAUSRANCIL_MASKTYPE(1) = 0,
  IAUSRANCIL_MASK(1) = 0,
  IAUSRANCIL_FILEINID(2) = 2,
  IAUSRANCIL_STASHCODE(2) = 302,
  IAUSRANCIL_PPCODE(2) = 0,
  AUSRANCIL_NCNAME(2) = "land_mask",
  IAUSRANCIL_GRIDTYPE(2) = 1,
  IAUSRANCIL_DATATYPE(2) = 1,
  IAUSRANCIL_MASKTYPE(2) = 0,
  IAUSRANCIL_MASK(2) = 0,
  IAUSRANCIL_FILEINID(3) = 3,
  IAUSRANCIL_STASHCODE(3) = 303,
  IAUSRANCIL_PPCODE(3) = 0,
  AUSRANCIL_NCNAME(3) = "tsurf",
  IAUSRANCIL_GRIDTYPE(3) = 1,
  IAUSRANCIL_DATATYPE(3) = 1,
  IAUSRANCIL_MASKTYPE(3) = 0,
  IAUSRANCIL_MASK(3) = 0,
 /

 &nam_ts1
 /

 &nam_flux
 /

 &nam_ousrmulti
 /

 &nam_ousrancil
 /

 &nam_genanc_config
  NANCFILES = 1
 /

 &nam_genanc
  LGENANC_FILE(1) = .FALSE.,

 /

 &nam_astart
 /

EOF

if ! [[ -z $sst ]]; then
    xancil_namelist_sst="/g/data3/w40/dm5220/scripts/tair_change/xancil.namelist_sst_tair_change_$(basename "$out_sst")"
    cat > "$xancil_namelist_sst" <<EOF
 &nam_config
  ICAL = 2,
  ISIZE = 64,
  L32BIT = .FALSE.,
  VERSION = 7.3,
  LBIGENDOUT = .TRUE.,
  LWFIO = .TRUE.,
  IWFIO_SIZE = 2048,
  NNCFILES = 1
  NCFILES = "${in_sst}"
 /

 &nam_gridconfig
  LVARGRID = .FALSE.,
  IAVERT = 0,
  IOVERT = 0,
  LDEEPSOIL = .FALSE.
 /

 &nam_ozone
 /

 &nam_smow
 /

 &nam_slt
 /

 &nam_soil
 /

 &nam_veg
 /

 &nam_vegfrac
 /

 &nam_vegfunc
 /

 &nam_vegdist
 /
 
 &nam_sst
  LSST = .TRUE.,
  SST_FILEIN = "${in_sst}"
  SST_NCNAME = "surface_temperature",
  SST_FILEOUT = "${out_sst}"
  LSST_MIN = .TRUE.,
  ASST_MIN = 271.4,
  LSST_ICEVAL = .FALSE.,
  LSST_PERIODIC = .TRUE.,
  LSST_CAL_INDEP = .FALSE.,
  ISST_MASK =-1,
  ISST_TIMEUSAGE1 = 1,
  ISST_TIMEUSAGE2 = 0,
  ISST_STARTDATE(1) = 0000,
  ISST_STARTDATE(2) = 1,
  ISST_STARTDATE(3) = 16,
  ISST_STARTDATE(4) = 0,
  ISST_STARTDATE(5) = 0,
  ISST_STARTDATE(6) = 0,
  ISST_NTIMES = 12,
  ISST_INTERVAL = 1,
  ISST_INTUNIT = 1,
  LSST_MM = .TRUE.
 /
 
 &nam_ice
 /

 &nam_orog
 /

 &nam_mask
 /

 &nam_lfrac
 /

 &nam_ausrmulti
 /

 &nam_ausrancil
 /

 &nam_ts1
 /

 &nam_flux
 /

 &nam_ousrmulti
 /

 &nam_ousrancil
 /

 &nam_genanc_config
  NANCFILES = 1
 /

 &nam_genanc
  LGENANC_FILE(1) = .FALSE.,
 /

 &nam_astart
 /

EOF
fi

script="sub_script_slevel_sst_tair_change_$(basename "$out_slev")"
cat > "$script" <<EOF
#!/bin/bash
#PBS -l walltime=10:00:00
#PBS -l ncpus=4
#PBS -q normal
#PBS -P w40
#PBS -l storage=gdata/hh5+gdata/w40+scratch/w40+gdata/access
#PBS -l mem=50gb

#/g/data3/w40/dm5220/scripts/tair_change/slevel_tair_correction.py${options_slev}
#/g/data/access/projects/access/apps/xancil/0.57/mkancil < "$xancil_namelist_slev"
#/g/data/w40/dm5220/scripts/util/fix_polar_anom "$out_slev" #fix polar errors
EOF

if ! [[ -z $sst ]]; then
    cat >> "$script" <<EOF
/g/data/w40/dm5220/scripts/prescribed_tsurf/monthly_sst.py${options_sst}
/g/data/access/projects/access/apps/xancil/0.57/mkancil < "$xancil_namelist_sst"
EOF
fi

qsub "$script"
